10
Properties=species:S:1:pos:R:3 pbc="F F F"
C        1.33952796      -0.80902201       0.18071701
C       -1.33954799      -0.80899203       0.18071800
H        1.25583506      -0.89638501       1.26682496
H       -2.27940392      -0.31392401      -0.06867400
H        1.30440700      -1.79332697      -0.29258901
H        2.27939510      -0.31397399      -0.06867400
H       -1.30444705      -1.79329801      -0.29258701
H       -1.25585699      -0.89635497       1.26682603
O        0.00002000       1.50074196       0.37981901
S        0.00000200       0.23183800      -0.43864301
10
Properties=species:S:1:pos:R:3 pbc="F F F"
C        1.52396834      -0.35548872       0.18071701
C       -1.02399361      -1.18334019       0.18071800
H        1.47136831      -0.46443844       1.26682496
H       -2.07083416      -1.00293410      -0.06867400
H        1.79473329      -1.30247140      -0.29258901
H        2.26485682       0.40576476      -0.06867400
H       -0.68644327      -2.10862398      -0.29258701
H       -0.91740203      -1.24056542       1.26682603
O       -0.46373576       1.42729664       0.37981901
S       -0.07163998       0.22049166      -0.43864301
10
Properties=species:S:1:pos:R:3 pbc="F F F"
C        1.55923212       0.13284226       0.18071701
C       -0.60820353      -1.44185483       0.18071800
H        1.54287374       0.01297059       1.26682496
H       -1.65955663      -1.59376991      -0.06867400
H        2.10937858      -0.68412083      -0.29258901
H        2.02861857       1.08578444      -0.06867400
H       -0.00124567      -2.21754336      -0.29258701
H       -0.48914540      -1.46334064       1.26682603
O       -0.88209784       1.21413755       0.37981901
S       -0.13626935       0.18756206      -0.43864301
10
Properties=species:S:1:pos:R:3 pbc="F F F"
C        1.44186735       0.60816973       0.18071701
C       -0.13287829      -1.55923069       0.18071800
H        1.46335196       0.48910996       1.26682496
H       -1.08583021      -2.02859640      -0.06867400
H        2.21754313       0.00119627      -0.29258901
H        1.59380507       1.65952003      -0.06867400
H        0.68407387      -2.10939384      -0.29258701
H       -0.01300780      -1.54287386       1.26682603
O       -1.21411407       0.88213021       0.37981901
S       -0.18755971       0.13627258      -0.43864301
10
Properties=species:S:1:pos:R:3 pbc="F F F"
C        1.18336260       1.02396524       0.18071701
C        0.35545403      -1.52397811       0.18071800
H        1.24058712       0.91737187       1.26682496
H       -0.40581509      -2.26484990      -0.06867400
H        2.10863924       0.68639624      -0.29258901
H        1.00297880       2.07081008      -0.06867400
H        1.30243146      -1.79476237      -0.29258701
H        0.46440312      -1.47137988       1.26682603
O       -1.42728424       0.46377382       0.37981901
S       -0.22049043       0.07164378      -0.43864301
10
Properties=species:S:1:pos:R:3 pbc="F F F"
C        0.80902201       1.33952796       0.18071701
C        0.80899203      -1.33954799       0.18071800
H        0.89638501       1.25583506       1.26682496
H        0.31392401      -2.27940392      -0.06867400
H        1.79332697       1.30440700      -0.29258901
H        0.31397399       2.27939510      -0.06867400
H        1.79329801      -1.30444705      -0.29258701
H        0.89635497      -1.25585699       1.26682603
O       -1.50074196       0.00002000       0.37981901
S       -0.23183800       0.00000200      -0.43864301
10
Properties=species:S:1:pos:R:3 pbc="F F F"
C        0.35548872       1.52396834       0.18071701
C        1.18334019      -1.02399361       0.18071800
H        0.46443844       1.47136831       1.26682496
H        1.00293410      -2.07083416      -0.06867400
H        1.30247140       1.79473329      -0.29258901
H       -0.40576476       2.26485682      -0.06867400
H        2.10862398      -0.68644327      -0.29258701
H        1.24056542      -0.91740203       1.26682603
O       -1.42729664      -0.46373576       0.37981901
S       -0.22049166      -0.07163998      -0.43864301
10
Properties=species:S:1:pos:R:3 pbc="F F F"
C       -0.13284226       1.55923212       0.18071701
C        1.44185483      -0.60820353       0.18071800
H       -0.01297059       1.54287374       1.26682496
H        1.59376991      -1.65955663      -0.06867400
H        0.68412083       2.10937858      -0.29258901
H       -1.08578444       2.02861857      -0.06867400
H        2.21754336      -0.00124567      -0.29258701
H        1.46334064      -0.48914540       1.26682603
O       -1.21413755      -0.88209784       0.37981901
S       -0.18756206      -0.13626935      -0.43864301
10
Properties=species:S:1:pos:R:3 pbc="F F F"
C       -0.60816973       1.44186735       0.18071701
C        1.55923069      -0.13287829       0.18071800
H       -0.48910996       1.46335196       1.26682496
H        2.02859640      -1.08583021      -0.06867400
H       -0.00119627       2.21754313      -0.29258901
H       -1.65952003       1.59380507      -0.06867400
H        2.10939384       0.68407387      -0.29258701
H        1.54287386      -0.01300780       1.26682603
O       -0.88213021      -1.21411407       0.37981901
S       -0.13627258      -0.18755971      -0.43864301
10
Properties=species:S:1:pos:R:3 pbc="F F F"
C       -1.02396524       1.18336260       0.18071701
C        1.52397811       0.35545403       0.18071800
H       -0.91737187       1.24058712       1.26682496
H        2.26484990      -0.40581509      -0.06867400
H       -0.68639624       2.10863924      -0.29258901
H       -2.07081008       1.00297880      -0.06867400
H        1.79476237       1.30243146      -0.29258701
H        1.47137988       0.46440312       1.26682603
O       -0.46377382      -1.42728424       0.37981901
S       -0.07164378      -0.22049043      -0.43864301
